6o5u_ligand
     RDKit          3D

 33 35  0  0  0  0  0  0  0  0999 V2000
   98.0689  -13.9837   -0.8657 C   0  0  2  0  0  0  0  0  0  0  0  0
   96.8431  -14.5351   -0.1708 C   0  0  1  0  0  0  0  0  0  0  0  0
   95.6119  -14.1226   -0.9250 C   0  0  2  0  0  0  0  0  0  0  0  0
   95.9238  -12.8549   -1.7330 C   0  0  1  0  0  0  0  0  0  0  0  0
   96.9560  -13.2147   -2.7381 C   0  0  1  0  0  0  0  0  0  0  0  0
   97.6971  -12.0391   -3.3090 C   0  0  0  0  0  0  0  0  0  0  0  0
  101.1157  -16.7493   -3.3661 C   0  0  1  0  0  0  0  0  0  0  0  0
  101.6198  -17.0124   -1.9753 C   0  0  1  0  0  0  0  0  0  0  0  0
  100.8968  -16.2521   -0.9091 C   0  0  2  0  0  0  0  0  0  0  0  0
   99.8591  -15.2997   -1.4915 C   0  0  1  0  0  0  0  0  0  0  0  0
   98.9134  -16.1296   -2.3089 C   0  0  2  0  0  0  0  0  0  0  0  0
   99.6288  -16.7065   -3.4835 C   0  0  0  0  0  0  0  0  0  0  0  0
  102.9080  -18.8549   -1.4021 C   0  0  1  0  0  0  0  0  0  0  0  0
  103.4395  -18.0718   -0.2482 C   0  0  1  0  0  0  0  0  0  0  0  0
  104.9287  -18.1208   -0.0925 C   0  0  2  0  0  0  0  0  0  0  0  0
  105.6600  -18.2895   -1.4007 C   0  0  1  0  0  0  0  0  0  0  0  0
  104.6951  -17.8762   -2.4956 C   0  0  1  0  0  0  0  0  0  0  0  0
  105.3787  -17.8863   -3.8540 C   0  0  0  0  0  0  0  0  0  0  0  0
   97.3719  -10.7936   -2.6503 N   0  0  0  0  0  4  0  0  0  0  0  0
   97.7604  -15.3645   -2.7570 N   0  0  0  0  0  4  0  0  0  0  0  0
  101.7572  -15.5715   -3.9309 N   0  0  0  0  0  4  0  0  0  0  0  0
  105.3676  -19.1943    0.7931 N   0  0  0  0  0  4  0  0  0  0  0  0
   97.8757  -14.1071   -2.2361 O   0  0  0  0  0  0  0  0  0  0  0  0
   96.9017  -15.9196   -0.1213 O   0  0  0  0  0  0  0  0  0  0  0  0
   94.5212  -13.8972   -0.0947 O   0  0  0  0  0  0  0  0  0  0  0  0
   94.7261  -12.4270   -2.2617 O   0  0  0  0  0  0  0  0  0  0  0  0
   99.1546  -14.7129   -0.4490 O   0  0  0  0  0  0  0  0  0  0  0  0
  101.7131  -15.5789   -0.0328 O   0  0  0  0  0  0  0  0  0  0  0  0
  101.6455  -18.3770   -1.7505 O   0  0  0  0  0  0  0  0  0  0  0  0
  103.6950  -18.8205   -2.5337 O   0  0  0  0  0  0  0  0  0  0  0  0
  102.9878  -16.7541   -0.3127 O   0  0  0  0  0  0  0  0  0  0  0  0
  106.8335  -17.5267   -1.4546 O   0  0  0  0  0  0  0  0  0  0  0  0
  105.5302  -19.1792   -4.3273 O   0  0  0  0  0  0  0  0  0  0  0  0
  1  2  1  0
  1 23  1  0
  1 27  1  1
  2  3  1  0
  2 24  1  6
  3  4  1  0
  3 25  1  1
  5  4  1  0
  4 26  1  6
  5  6  1  1
 23  5  1  0
  6 19  1  0
  8  7  1  0
  7 12  1  0
  7 21  1  1
  8  9  1  0
  8 29  1  1
  9 10  1  0
  9 28  1  6
 10 11  1  0
 10 27  1  1
 12 11  1  0
 11 20  1  6
 13 14  1  0
 13 29  1  6
 13 30  1  0
 14 15  1  0
 14 31  1  6
 15 16  1  0
 15 22  1  1
 16 17  1  0
 16 32  1  1
 17 18  1  6
 17 30  1  0
 18 33  1  0
M  CHG  4  19   1  20   1  21   1  22   1
M  END
$$$$
